<?xml version="1.0"?>
<graph>
    <node id="1"/>
    <node id="2"/>
    <node id="3"/>
    <node id="4"/>
    <node id="5"/>
    <node id="6"/>
    <node id="7"/>
    <node id="8"/>
    <node id="9"/>
    <node id="10"/>
    <node id="11"/>
    <node id="12"/>
    <node id="13"/>
    <node id="14"/>
    <node id="15"/>
    <node id="16"/>
    <node id="17"/>
    <node id="18"/>
    <node id="19"/>
    <node id="20"/>
    <node id="21"/>
    <node id="22"/>
    <node id="23"/>
    <node id="24"/>

    <edge id="1" source="1" target="2" capacity="25900.20064" lenght="6" fftime="6" alpha="0.15" beta="4" directed="true"/>
    <edge id="2" source="1" target="3" capacity="23403.47319" lenght="4" fftime="4" alpha="0.15" beta="4" directed="true"/>
    <edge id="3" source="2" target="1" capacity="25900.20064" lenght="6" fftime="6" alpha="0.15" beta="4" directed="true"/>
    <edge id="4" source="2" target="6" capacity="4958.180928" lenght="5" fftime="5" alpha="0.15" beta="4" directed="true"/>
    <edge id="5" source="3" target="1" capacity="23403.47319" lenght="4" fftime="4" alpha="0.15" beta="4" directed="true"/>
    <edge id="6" source="3" target="4" capacity="17110.52372" lenght="4" fftime="4" alpha="0.15" beta="4" directed="true"/>
    <edge id="7" source="3" target="12" capacity="23403.47319" lenght="4" fftime="4" alpha="0.15" beta="4" directed="true"/>
    <edge id="8" source="4" target="3" capacity="17110.52372" lenght="4" fftime="4" alpha="0.15" beta="4" directed="true"/>
    <edge id="9" source="4" target="5" capacity="17782.7941" lenght="2" fftime="2" alpha="0.15" beta="4" directed="true"/>
    <edge id="10" source="4" target="11" capacity="4908.82673" lenght="6" fftime="6" alpha="0.15" beta="4" directed="true"/>
    <edge id="11" source="5" target="4" capacity="17782.7941" lenght="2" fftime="2" alpha="0.15" beta="4" directed="true"/>
    <edge id="12" source="5" target="6" capacity="4947.995469" lenght="4" fftime="4" alpha="0.15" beta="4" directed="true"/>
    <edge id="13" source="5" target="9" capacity="10000" lenght="5" fftime="5" alpha="0.15" beta="4" directed="true"/>
    <edge id="14" source="6" target="2" capacity="4958.180928" lenght="5" fftime="5" alpha="0.15" beta="4" directed="true"/>
    <edge id="15" source="6" target="5" capacity="4947.995469" lenght="4" fftime="4" alpha="0.15" beta="4" directed="true"/>
    <edge id="16" source="6" target="8" capacity="4898.587646" lenght="2" fftime="2" alpha="0.15" beta="4" directed="true"/>
    <edge id="17" source="7" target="8" capacity="7841.81131" lenght="3" fftime="3" alpha="0.15" beta="4" directed="true"/>
    <edge id="18" source="7" target="18" capacity="23403.47319" lenght="2" fftime="2" alpha="0.15" beta="4" directed="true"/>
    <edge id="19" source="8" target="6" capacity="4898.587646" lenght="2" fftime="2" alpha="0.15" beta="4" directed="true"/>
    <edge id="20" source="8" target="7" capacity="7841.81131" lenght="3" fftime="3" alpha="0.15" beta="4" directed="true"/>
    <edge id="21" source="8" target="9" capacity="5050.193156" lenght="10" fftime="10" alpha="0.15" beta="4" directed="true"/>
    <edge id="22" source="8" target="16" capacity="5045.822583" lenght="5" fftime="5" alpha="0.15" beta="4" directed="true"/>
    <edge id="23" source="9" target="5" capacity="10000" lenght="5" fftime="5" alpha="0.15" beta="4" directed="true"/>
    <edge id="24" source="9" target="8" capacity="5050.193156" lenght="10" fftime="10" alpha="0.15" beta="4" directed="true"/>
    <edge id="25" source="9" target="10" capacity="13915.78842" lenght="3" fftime="3" alpha="0.15" beta="4" directed="true"/>
    <edge id="26" source="10" target="9" capacity="13915.78842" lenght="3" fftime="3" alpha="0.15" beta="4" directed="true"/>
    <edge id="27" source="10" target="11" capacity="10000" lenght="5" fftime="5" alpha="0.15" beta="4" directed="true"/>
    <edge id="28" source="10" target="15" capacity="13512.00155" lenght="6" fftime="6" alpha="0.15" beta="4" directed="true"/>
    <edge id="29" source="10" target="16" capacity="4854.917717" lenght="4" fftime="4" alpha="0.15" beta="4" directed="true"/>
    <edge id="30" source="10" target="17" capacity="4993.510694" lenght="8" fftime="8" alpha="0.15" beta="4" directed="true"/>
    <edge id="31" source="11" target="4" capacity="4908.82673" lenght="6" fftime="6" alpha="0.15" beta="4" directed="true"/>
    <edge id="32" source="11" target="10" capacity="10000" lenght="5" fftime="5" alpha="0.15" beta="4" directed="true"/>
    <edge id="33" source="11" target="12" capacity="4908.82673" lenght="6" fftime="6" alpha="0.15" beta="4" directed="true"/>
    <edge id="34" source="11" target="14" capacity="4876.508287" lenght="4" fftime="4" alpha="0.15" beta="4" directed="true"/>
    <edge id="35" source="12" target="3" capacity="23403.47319" lenght="4" fftime="4" alpha="0.15" beta="4" directed="true"/>
    <edge id="36" source="12" target="11" capacity="4908.82673" lenght="6" fftime="6" alpha="0.15" beta="4" directed="true"/>
    <edge id="37" source="12" target="13" capacity="25900.20064" lenght="3" fftime="3" alpha="0.15" beta="4" directed="true"/>
    <edge id="38" source="13" target="12" capacity="25900.20064" lenght="3" fftime="3" alpha="0.15" beta="4" directed="true"/>
    <edge id="39" source="13" target="24" capacity="5091.256152" lenght="4" fftime="4" alpha="0.15" beta="4" directed="true"/>
    <edge id="40" source="14" target="11" capacity="4876.508287" lenght="4" fftime="4" alpha="0.15" beta="4" directed="true"/>
    <edge id="41" source="14" target="15" capacity="5127.526119" lenght="5" fftime="5" alpha="0.15" beta="4" directed="true"/>
    <edge id="42" source="14" target="23" capacity="4924.790605" lenght="4" fftime="4" alpha="0.15" beta="4" directed="true"/>
    <edge id="43" source="15" target="10" capacity="13512.00155" lenght="6" fftime="6" alpha="0.15" beta="4" directed="true"/>
    <edge id="44" source="15" target="14" capacity="5127.526119" lenght="5" fftime="5" alpha="0.15" beta="4" directed="true"/>
    <edge id="45" source="15" target="19" capacity="14564.75315" lenght="3" fftime="3" alpha="0.15" beta="4" directed="true"/>
    <edge id="46" source="15" target="22" capacity="9599.180565" lenght="3" fftime="3" alpha="0.15" beta="4" directed="true"/>
    <edge id="47" source="16" target="8" capacity="5045.822583" lenght="5" fftime="5" alpha="0.15" beta="4" directed="true"/>
    <edge id="48" source="16" target="10" capacity="4854.917717" lenght="4" fftime="4" alpha="0.15" beta="4" directed="true"/>
    <edge id="49" source="16" target="17" capacity="5229.910063" lenght="2" fftime="2" alpha="0.15" beta="4" directed="true"/>
    <edge id="50" source="16" target="18" capacity="19679.89671" lenght="3" fftime="3" alpha="0.15" beta="4" directed="true"/>
    <edge id="51" source="17" target="10" capacity="4993.510694" lenght="8" fftime="8" alpha="0.15" beta="4" directed="true"/>
    <edge id="52" source="17" target="16" capacity="5229.910063" lenght="2" fftime="2" alpha="0.15" beta="4" directed="true"/>
    <edge id="53" source="17" target="19" capacity="4823.950831" lenght="2" fftime="2" alpha="0.15" beta="4" directed="true"/>
    <edge id="54" source="18" target="7" capacity="23403.47319" lenght="2" fftime="2" alpha="0.15" beta="4" directed="true"/>
    <edge id="55" source="18" target="16" capacity="19679.89671" lenght="3" fftime="3" alpha="0.15" beta="4" directed="true"/>
    <edge id="56" source="18" target="20" capacity="23403.47319" lenght="4" fftime="4" alpha="0.15" beta="4" directed="true"/>
    <edge id="57" source="19" target="15" capacity="14564.75315" lenght="3" fftime="3" alpha="0.15" beta="4" directed="true"/>
    <edge id="58" source="19" target="17" capacity="4823.950831" lenght="2" fftime="2" alpha="0.15" beta="4" directed="true"/>
    <edge id="59" source="19" target="20" capacity="5002.607563" lenght="4" fftime="4" alpha="0.15" beta="4" directed="true"/>
    <edge id="60" source="20" target="18" capacity="23403.47319" lenght="4" fftime="4" alpha="0.15" beta="4" directed="true"/>
    <edge id="61" source="20" target="19" capacity="5002.607563" lenght="4" fftime="4" alpha="0.15" beta="4" directed="true"/>
    <edge id="62" source="20" target="21" capacity="5059.91234" lenght="6" fftime="6" alpha="0.15" beta="4" directed="true"/>
    <edge id="63" source="20" target="22" capacity="5075.697193" lenght="5" fftime="5" alpha="0.15" beta="4" directed="true"/>
    <edge id="64" source="21" target="20" capacity="5059.91234" lenght="6" fftime="6" alpha="0.15" beta="4" directed="true"/>
    <edge id="65" source="21" target="22" capacity="5229.910063" lenght="2" fftime="2" alpha="0.15" beta="4" directed="true"/>
    <edge id="66" source="21" target="24" capacity="4885.357564" lenght="3" fftime="3" alpha="0.15" beta="4" directed="true"/>
    <edge id="67" source="22" target="15" capacity="9599.180565" lenght="3" fftime="3" alpha="0.15" beta="4" directed="true"/>
    <edge id="68" source="22" target="20" capacity="5075.697193" lenght="5" fftime="5" alpha="0.15" beta="4" directed="true"/>
    <edge id="69" source="22" target="21" capacity="5229.910063" lenght="2" fftime="2" alpha="0.15" beta="4" directed="true"/>
    <edge id="70" source="22" target="23" capacity="5000" lenght="4" fftime="4" alpha="0.15" beta="4" directed="true"/>
    <edge id="71" source="23" target="14" capacity="4924.790605" lenght="4" fftime="4" alpha="0.15" beta="4" directed="true"/>
    <edge id="72" source="23" target="22" capacity="5000" lenght="4" fftime="4" alpha="0.15" beta="4" directed="true"/>
    <edge id="73" source="23" target="24" capacity="5078.508436" lenght="2" fftime="2" alpha="0.15" beta="4" directed="true"/>
    <edge id="74" source="24" target="13" capacity="5091.256152" lenght="4" fftime="4" alpha="0.15" beta="4" directed="true"/>
    <edge id="75" source="24" target="21" capacity="4885.357564" lenght="3" fftime="3" alpha="0.15" beta="4" directed="true"/>
    <edge id="76" source="24" target="23" capacity="5078.508436" lenght="2" fftime="2" alpha="0.15" beta="4" directed="true"/>
</graph>